Version 4.1
SHEET 1 996 680
WIRE 656 -160 656 -208
WIRE 128 -96 128 -176
WIRE 64 -64 -160 -64
WIRE 272 -48 192 -48
WIRE 336 -48 272 -48
WIRE 64 -32 -64 -32
WIRE 656 -32 656 -80
WIRE 656 -32 560 -32
WIRE 736 -32 656 -32
WIRE 864 -32 816 -32
WIRE -64 0 -64 -32
WIRE 656 0 656 -32
WIRE 864 0 864 -32
WIRE 128 96 128 0
WIRE 336 96 336 32
WIRE -160 112 -160 -64
WIRE -64 112 -64 80
WIRE -64 112 -160 112
WIRE 656 128 656 80
WIRE -64 160 -64 112
FLAG 336 96 gnda
FLAG 128 96 vssa
FLAG 128 -176 vdda
FLAG 864 0 0
FLAG 560 -32 gnda
FLAG 656 -208 vdda
FLAG 656 128 vssa
FLAG -64 160 0
FLAG -64 -32 in
FLAG 272 -48 out
SYMBOL opamp-schem 112 -48 R0
SYMATTR InstName X1
SYMBOL res 320 -64 R0
SYMATTR InstName R1
SYMATTR Value 1Meg
SYMBOL voltage 656 -176 R0
WINDOW 123 0 0 Left 0
WINDOW 39 0 0 Left 0
SYMATTR InstName V1
SYMATTR Value 2.5
SYMBOL voltage 656 -16 R0
WINDOW 123 0 0 Left 0
WINDOW 39 0 0 Left 0
SYMATTR InstName V2
SYMATTR Value 2.5
SYMBOL res 832 -48 R90
WINDOW 0 0 56 VBottom 2
WINDOW 3 32 56 VTop 2
SYMATTR InstName RTAP
SYMATTR Value 0.1
SYMBOL voltage -64 -16 R0
WINDOW 123 0 0 Left 0
WINDOW 39 0 0 Left 0
SYMATTR InstName V3
SYMATTR Value AC 1m 0
TEXT -152 208 Left 2 !.ac dec 100 1 1G
